Version 4
SHEET 1 35412 2036
WIRE 224 -2064 224 -2080
WIRE 2608 -2064 2448 -2064
WIRE 2704 -2064 2608 -2064
WIRE -32 -2048 -32 -2064
WIRE 720 -2000 512 -2000
WIRE 224 -1968 224 -1984
WIRE 320 -1968 224 -1968
WIRE 464 -1968 400 -1968
WIRE -32 -1936 -32 -1968
WIRE 64 -1936 -32 -1936
WIRE 2448 -1936 2448 -2064
WIRE 512 -1920 512 -2000
WIRE 560 -1920 512 -1920
WIRE 224 -1904 224 -1968
WIRE 256 -1904 224 -1904
WIRE 720 -1904 720 -2000
WIRE 720 -1904 624 -1904
WIRE 976 -1904 720 -1904
WIRE 1248 -1904 1248 -1936
WIRE 1248 -1904 1088 -1904
WIRE 1360 -1904 1248 -1904
WIRE 2048 -1904 1472 -1904
WIRE 2304 -1904 2304 -2000
WIRE 2304 -1904 2192 -1904
WIRE 2400 -1904 2304 -1904
WIRE 2528 -1904 2496 -1904
WIRE -32 -1888 -32 -1936
WIRE 0 -1888 -32 -1888
WIRE 464 -1888 464 -1968
WIRE 464 -1888 320 -1888
WIRE 560 -1888 464 -1888
WIRE 144 -1872 144 -1936
WIRE 144 -1872 64 -1872
WIRE 256 -1872 144 -1872
WIRE 2048 -1872 1952 -1872
WIRE 2272 -1872 2192 -1872
WIRE -256 -1856 -352 -1856
WIRE -128 -1856 -192 -1856
WIRE 0 -1856 -128 -1856
WIRE -1808 -1824 -1808 -1920
WIRE -352 -1824 -352 -1856
WIRE -128 -1824 -128 -1856
WIRE 2528 -1824 2528 -1904
WIRE -1696 -1808 -1696 -1888
WIRE -1808 -1712 -1808 -1744
WIRE -1808 -1712 -1872 -1712
WIRE -352 -1712 -352 -1744
WIRE -128 -1712 -128 -1744
WIRE -128 -1712 -352 -1712
WIRE -1808 -1680 -1808 -1712
WIRE -1696 -1648 -1696 -1728
WIRE -128 -1632 -128 -1712
WIRE -1808 -1488 -1808 -1600
FLAG -32 -2064 0
FLAG -128 -1632 0
FLAG -1872 -1712 0
FLAG -1808 -1920 V+
FLAG 32 -1904 V+
FLAG -1808 -1488 V-
FLAG 32 -1840 V-
FLAG 224 -2080 0
FLAG 288 -1920 V+
FLAG 288 -1856 V-
FLAG 592 -1936 V+
FLAG 592 -1872 V-
FLAG -1696 -1648 0
FLAG -1696 -1888 vcom
FLAG 2528 -1824 0
FLAG 2704 -1984 0
FLAG 1952 -1872 vcom
FLAG 2272 -1872 0
FLAG 1248 -1936 V1_grey
FLAG 2608 -2064 V1_mr
FLAG 2304 -2000 V1_uin
SYMBOL cap -192 -1872 R90
WINDOW 0 0 32 VBottom 2
WINDOW 3 32 32 VTop 2
SYMATTR InstName C1
SYMATTR Value 10n
SYMBOL res -144 -1840 R0
SYMATTR InstName R1
SYMATTR Value 1K
SYMBOL res -48 -2064 R0
SYMATTR InstName R2
SYMATTR Value 1K
SYMBOL res 160 -1952 R90
WINDOW 0 0 56 VBottom 2
WINDOW 3 32 56 VTop 2
SYMATTR InstName R3
SYMATTR Value 50K
SYMBOL voltage -352 -1840 R0
WINDOW 3 24 44 Left 2
WINDOW 123 0 0 Left 0
WINDOW 39 0 0 Left 0
SYMATTR Value 0
SYMATTR InstName V1
SYMBOL voltage -1808 -1840 R0
WINDOW 123 0 0 Left 0
WINDOW 39 0 0 Left 0
SYMATTR InstName V2
SYMATTR Value 5
SYMBOL voltage -1808 -1696 R0
WINDOW 123 0 0 Left 0
WINDOW 39 0 0 Left 0
SYMATTR InstName V3
SYMATTR Value 5
SYMBOL res 208 -2080 R0
SYMATTR InstName R5
SYMATTR Value 1K
SYMBOL res 416 -1984 R90
WINDOW 0 0 56 VBottom 2
WINDOW 3 32 56 VTop 2
SYMATTR InstName R6
SYMATTR Value 196.55k
SYMBOL AutoGenerated\\abs_model 1024 -1904 R0
SYMATTR InstName U4
SYMBOL voltage -1696 -1824 R0
WINDOW 123 0 0 Left 0
WINDOW 39 0 0 Left 0
SYMATTR InstName V7
SYMATTR Value PWL repeat for 3000 (0 0 0.05 10  0.1 0  1 0) endrepeat
SYMBOL memristor_with_state 2448 -1904 R270
SYMATTR InstName U7
SYMATTR Value vteamr_t
SYMATTR SpiceLine alphaoff=3 alphaon=3 voff=-0.05 von=0.05 koff=0.008u kon=-0.005u kfor=0u
SYMATTR SpiceLine2 Roff=10k Ron=2k woff=10n won=0 wini=5n
SYMBOL res 2688 -2080 R0
SYMATTR InstName R10
SYMATTR Value 1
SYMBOL AutoGenerated\\vsw 2112 -1888 R0
SYMATTR InstName U5
SYMATTR SpiceLine Ropen=1 Rclose=10Meg Vth=1
SYMBOL AutoGenerated\\calfunc 1408 -1904 R0
SYMATTR InstName U6
SYMATTR SpiceLine vup=vup vun=vun bia1=bia1 plus1=plus1 bia2=bia2 plus2=plus2 bia0=bia0
SYMBOL OpAmps\\OP37 32 -1936 R0
SYMATTR InstName U1
SYMBOL OpAmps\\OP37 288 -1952 R0
SYMATTR InstName U2
SYMBOL OpAmps\\OP37 592 -1968 R0
SYMATTR InstName U3
TEXT -640 -1520 Left 2 !.lib C:\\Users\\ASUS\\Desktop\\Memristor_model\\typical_type\\VTEAM\\VTEAMr_t.sub
TEXT -640 -1472 Left 2 !.lib C:\\Users\\ASUS\\Desktop\\Memristor_model\\typical_type\\VTEAM\\idealdiode.sub
TEXT -1896 -1392 Left 2 !.tran 0 900 0 0.01
